
     RDKit          3D

  0  0  0  0  0  0  0  0  0  0999 V3000
M  V30 BEGIN CTAB
M  V30 COUNTS 28 28 0 0 0
M  V30 BEGIN ATOM
M  V30 1 C 4.010119 1.109687 0.314734 0
M  V30 2 C 3.196951 0.242822 0.483504 0
M  V30 3 C 2.226913 -0.785557 0.681073 0
M  V30 4 C 2.493324 -1.763358 1.561426 0
M  V30 5 C 0.955410 -0.782747 -0.139894 0
M  V30 6 C -0.166443 0.069796 0.474086 0
M  V30 7 C 0.135943 1.579066 0.497771 0
M  V30 8 C -1.233239 2.177221 0.497707 0
M  V30 9 C -2.160112 1.293232 0.111591 0
M  V30 10 C -1.556303 -0.048977 -0.224478 0
M  V30 11 C -1.490451 -0.207165 -1.749861 0
M  V30 12 C -2.377869 -1.192830 0.380402 0
M  V30 13 H 4.732536 1.877931 0.165916 0
M  V30 14 H 3.414764 -1.776067 2.136606 0
M  V30 15 H 1.794751 -2.575789 1.733495 0
M  V30 16 H 1.189836 -0.440337 -1.155958 0
M  V30 17 H 0.597855 -1.815310 -0.248258 0
M  V30 18 H -0.285071 -0.247247 1.523226 0
M  V30 19 H 0.687396 1.856777 1.401250 0
M  V30 20 H 0.692687 1.915727 -0.382957 0
M  V30 21 H -1.433276 3.210174 0.747352 0
M  V30 22 H -3.212636 1.522066 0.003972 0
M  V30 23 H -2.490197 -0.144018 -2.196259 0
M  V30 24 H -1.069695 -1.178106 -2.033060 0
M  V30 25 H -0.875955 0.572721 -2.214322 0
M  V30 26 H -2.504448 -1.072290 1.462661 0
M  V30 27 H -1.892630 -2.159610 0.207284 0
M  V30 28 H -3.380160 -1.237809 -0.061423 0
M  V30 END ATOM
M  V30 BEGIN BOND
M  V30 1 3 1 2
M  V30 2 1 2 3
M  V30 3 2 3 4 CFG=2
M  V30 4 1 3 5
M  V30 5 1 5 6
M  V30 6 1 6 7
M  V30 7 1 7 8
M  V30 8 2 8 9
M  V30 9 1 9 10
M  V30 10 1 10 11
M  V30 11 1 10 12
M  V30 12 1 10 6
M  V30 13 1 1 13
M  V30 14 1 4 14
M  V30 15 1 4 15
M  V30 16 1 5 16
M  V30 17 1 5 17
M  V30 18 1 6 18
M  V30 19 1 7 19
M  V30 20 1 7 20
M  V30 21 1 8 21
M  V30 22 1 9 22
M  V30 23 1 11 23
M  V30 24 1 11 24
M  V30 25 1 11 25
M  V30 26 1 12 26
M  V30 27 1 12 27
M  V30 28 1 12 28
M  V30 END BOND
M  V30 END CTAB
M  END
