
     RDKit          3D

  0  0  0  0  0  0  0  0  0  0999 V3000
M  V30 BEGIN CTAB
M  V30 COUNTS 28 29 0 0 0
M  V30 BEGIN ATOM
M  V30 1 C -2.019516 2.373293 -0.362828 0
M  V30 2 C -1.897918 1.116186 0.100253 0
M  V30 3 C -2.946958 0.602456 0.978479 0
M  V30 4 C -2.947882 -0.675116 1.388704 0
M  V30 5 C -1.909553 -1.663050 0.935538 0
M  V30 6 C -1.181744 -1.221997 -0.344461 0
M  V30 7 C -0.777762 0.241561 -0.306460 0
M  V30 8 C 0.463612 0.705435 -0.554270 0
M  V30 9 C 1.591634 -0.187752 -0.946911 0
M  V30 10 C 2.945270 0.527966 -1.205588 0
M  V30 11 C 3.336172 0.219056 0.251840 0
M  V30 12 C 2.300614 -0.920856 0.223770 0
M  V30 13 H -2.852983 3.009517 -0.082017 0
M  V30 14 H -1.304905 2.806664 -1.054277 0
M  V30 15 H -3.722294 1.280835 1.323487 0
M  V30 16 H -3.715710 -1.024237 2.072565 0
M  V30 17 H -2.391077 -2.630176 0.749898 0
M  V30 18 H -1.188174 -1.812235 1.748042 0
M  V30 19 H -0.330105 -1.891018 -0.502295 0
M  V30 20 H -1.846817 -1.370817 -1.206656 0
M  V30 21 H 0.686199 1.764676 -0.460578 0
M  V30 22 H 1.310873 -0.842394 -1.781367 0
M  V30 23 H 2.908135 1.588990 -1.468898 0
M  V30 24 H 3.572916 0.012700 -1.943141 0
M  V30 25 H 3.089985 1.022531 0.955363 0
M  V30 26 H 4.373535 -0.085930 0.410654 0
M  V30 27 H 1.730411 -1.056192 1.147477 0
M  V30 28 H 2.724044 -1.890093 -0.066324 0
M  V30 END ATOM
M  V30 BEGIN BOND
M  V30 1 2 1 2 CFG=2
M  V30 2 1 2 3
M  V30 3 2 3 4
M  V30 4 1 4 5
M  V30 5 1 5 6
M  V30 6 1 6 7
M  V30 7 2 7 8 CFG=2
M  V30 8 1 8 9
M  V30 9 1 9 10
M  V30 10 1 10 11
M  V30 11 1 11 12
M  V30 12 1 7 2
M  V30 13 1 12 9
M  V30 14 1 1 13
M  V30 15 1 1 14
M  V30 16 1 3 15
M  V30 17 1 4 16
M  V30 18 1 5 17
M  V30 19 1 5 18
M  V30 20 1 6 19
M  V30 21 1 6 20
M  V30 22 1 8 21
M  V30 23 1 9 22
M  V30 24 1 10 23
M  V30 25 1 10 24
M  V30 26 1 11 25
M  V30 27 1 11 26
M  V30 28 1 12 27
M  V30 29 1 12 28
M  V30 END BOND
M  V30 END CTAB
M  END
